Program Version,EnergyPlus, Version 8.6.0-198c6a3cff, YMD=2016.11.21 15:05,IDD_Version 8.6.0
   ** Warning ** Weather file location will be used rather than entered (IDF) Location object.
   **   ~~~   ** ..Location object=CHICAGO OHARE INTL AP IL USA WMO=725300
   **   ~~~   ** ..Weather File Location=Tampa International Ap FL USA TMY3 WMO#=722110
   **   ~~~   ** ..due to location differences, Latitude difference=[14.02] degrees, Longitude difference=[5.38] degrees.
   **   ~~~   ** ..Time Zone difference=[1.0] hour(s), Elevation difference=[97.07] percent, [199.00] meters.
   ************* Testing Individual Branch Integrity
   ************* All Branches passed integrity testing
   ************* Testing Individual Supply Air Path Integrity
   ************* All Supply Air Paths passed integrity testing
   ************* Testing Individual Return Air Path Integrity
   ************* All Return Air Paths passed integrity testing
   ************* No node connection errors were found.
   ************* Beginning Simulation
   ************* Simulation Error Summary *************
   ************* EnergyPlus Warmup Error Summary. During Warmup: 0 Warning; 0 Severe Errors.
   ************* EnergyPlus Sizing Error Summary. During Sizing: 0 Warning; 0 Severe Errors.
   ************* EnergyPlus Completed Successfully-- 1 Warning; 0 Severe Errors; Elapsed Time=00hr 00min  1.21sec
